 .Sol file Watershed HRU:73 Subbasin:12 HRU:4 Luse:BARL Soil: Water bodies Slope: 15-30 2024/8/23 0:00:00 ArcSWAT 2012.10_2.19
 Soil Name: Water bodies
 Soil Hydrologic Group: D
 Maximum rooting depth(mm) :   25.40
 Porosity fraction from which anions are excluded: 0.000
 Crack volume potential of soil: 0.000
 Texture 1                : 0
 Depth                [mm]:       25.40
 Bulk Density Moist [g/cc]:        0.00
 Ave. AW Incl. Rock Frag  :        0.00
 Ksat. (est.)      [mm/hr]:        0.01
 Organic Carbon [weight %]:        0.00
 Clay           [weight %]:        0.00
 Silt           [weight %]:        0.00
 Sand           [weight %]:        0.00
 Rock Fragments   [vol. %]:        0.00
 Soil Albedo (Moist)      :        0.00
 Erosion K                :        0.00
 Salinity (EC, Form 5)    :        0.00
 Soil pH                  :        0.00
 Soil CACO3               :        0.00
                              
