 .Sol file Watershed HRU:18 Subbasin:3 HRU:5 Luse:BARL Soil: Haplic Alisols Slope: 30-45 2024/8/23 0:00:00 ArcSWAT 2012.10_2.19
 Soil Name: Haplic Alisols
 Soil Hydrologic Group: B
 Maximum rooting depth(mm) : 1000.00
 Porosity fraction from which anions are excluded: 0.500
 Crack volume potential of soil: 0.500
 Texture 1                : Clay-Loam
 Depth                [mm]:      300.00     1000.00
 Bulk Density Moist [g/cc]:        1.39        1.33
 Ave. AW Incl. Rock Frag  :        0.13        0.12
 Ksat. (est.)      [mm/hr]:        9.50        2.85
 Organic Carbon [weight %]:        1.16        0.35
 Clay           [weight %]:       23.00       32.00
 Silt           [weight %]:       37.00       33.00
 Sand           [weight %]:       40.00       35.00
 Rock Fragments   [vol. %]:        8.00        7.00
 Soil Albedo (Moist)      :        0.00        0.00
 Erosion K                :        0.18        0.23
 Salinity (EC, Form 5)    :        0.10        0.10
 Soil pH                  :        0.00        0.00
 Soil CACO3               :        0.00        0.00
                              
