 .Sol file Watershed HRU:51 Subbasin:8 HRU:4 Luse:BARL Soil: Haplic Acrisols Slope: 15-30 2024/8/23 0:00:00 ArcSWAT 2012.10_2.19
 Soil Name: Haplic Acrisols
 Soil Hydrologic Group: C
 Maximum rooting depth(mm) : 1000.00
 Porosity fraction from which anions are excluded: 0.500
 Crack volume potential of soil: 0.500
 Texture 1                : Clay
 Depth                [mm]:      300.00     1000.00        0.00
 Bulk Density Moist [g/cc]:        1.25        1.22        0.00
 Ave. AW Incl. Rock Frag  :        0.12        0.11        0.00
 Ksat. (est.)      [mm/hr]:        1.08        0.47        0.01
 Organic Carbon [weight %]:        1.24        0.45        0.00
 Clay           [weight %]:       48.00       56.00        0.00
 Silt           [weight %]:       25.00       22.00        0.00
 Sand           [weight %]:       27.00       22.00        0.00
 Rock Fragments   [vol. %]:        4.00        6.00        0.00
 Soil Albedo (Moist)      :        0.00        0.00        0.00
 Erosion K                :        0.17        0.22        0.00
 Salinity (EC, Form 5)    :        0.10        0.10        0.00
 Soil pH                  :        0.00        0.00        0.00
 Soil CACO3               :        0.00        0.00        0.00
                              
